*Heading
** Job name: Explicit Model name: Explicit
** Generated by: Abaqus/CAE 2023
*Preprint, echo=NO, model=NO, history=NO, contact=NO
**
** PARTS
**
*Part, name=Cylinder
*Node
      1,           0.,           0.
      2,         0.25,           0.
      3,          0.5,           0.
      4,         0.75,           0.
      5,           1.,           0.
      6,         1.25,           0.
      7,          1.5,           0.
      8,         1.75,           0.
      9,           2.,           0.
     10,         2.25,           0.
     11,          2.5,           0.
     12,         2.75,           0.
     13,           3.,           0.
     14,         3.25,           0.
     15,          3.5,           0.
     16,         3.75,           0.
     17,           4.,           0.
     18,         4.25,           0.
     19,          4.5,           0.
     20,         4.75,           0.
** ... 631 like lines cut
*Element, type=CAX4RT
  1,   1,   2,  23,  22
  2,   2,   3,  24,  23
  3,   3,   4,  25,  24
  4,   4,   5,  26,  25
  5,   5,   6,  27,  26
  6,   6,   7,  28,  27
  7,   7,   8,  29,  28
  8,   8,   9,  30,  29
  9,   9,  10,  31,  30
 10,  10,  11,  32,  31
 11,  11,  12,  33,  32
 12,  12,  13,  34,  33
 13,  13,  14,  35,  34
 14,  14,  15,  36,  35
 15,  15,  16,  37,  36
 16,  16,  17,  38,  37
 17,  17,  18,  39,  38
 18,  18,  19,  40,  39
 19,  19,  20,  41,  40
 20,  20,  21,  42,  41
** ... 580 like lines cut
*Nset, nset=Set-1, generate
   1,  651,    1
*Elset, elset=Set-1, generate
   1,  600,    1
** Section: Steel
*Solid Section, elset=Set-1, material=Steel
,
*End Part
**  
*Part, name=Top
*End Part
**  
**
** ASSEMBLY
**
*Assembly, name=Assembly
**  
*Instance, name=Cylinder-1, part=Cylinder
*End Instance
**  
*Instance, name=Top-1, part=Top
          0.,         -7.5,           0.
*Node
      1,           0.,          15.,           0.
*Nset, nset=Top-1-RefPt_, internal
1, 
*Surface, type=SEGMENTS, name=m_Surf-1
START,          10.,          15.
 LINE,           0.,          15.
*Rigid Body, ref node=Top-1-RefPt_, analytical surface=m_Surf-1
*End Instance
**  
*Nset, nset=Set-1, instance=Cylinder-1, generate
   1,  631,   21
*Elset, elset=Set-1, instance=Cylinder-1, generate
   1,  581,   20
*Nset, nset=Set-3, instance=Top-1
 1,
*Nset, nset=Set-4, instance=Cylinder-1, generate
   1,  651,    1
*Elset, elset=Set-4, instance=Cylinder-1, generate
   1,  600,    1
*Nset, nset=Set-5, instance=Cylinder-1, generate
  1,  21,   1
*Elset, elset=Set-5, instance=Cylinder-1, generate
  1,  20,   1
*Elset, elset=_s_Surf-1_S3, internal, instance=Cylinder-1, generate
 581,  600,    1
*Surface, type=ELEMENT, name=s_Surf-1
_s_Surf-1_S3, S3
*Elset, elset=_s_Surf-3_S1, internal, instance=Cylinder-1, generate
  1,  20,   1
*Surface, type=ELEMENT, name=s_Surf-3
_s_Surf-3_S1, S1
*Elset, elset=_s_Surf-5_S1, internal, instance=Cylinder-1, generate
  1,  20,   1
*Elset, elset=_s_Surf-5_S2, internal, instance=Cylinder-1, generate
  20,  600,   20
*Surface, type=ELEMENT, name=s_Surf-5
_s_Surf-5_S1, S1
_s_Surf-5_S2, S2
*Elset, elset=_s_Surf-6_S2, internal, instance=Cylinder-1, generate
  20,  600,   20
*Elset, elset=_s_Surf-6_S3, internal, instance=Cylinder-1, generate
 581,  600,    1
*Surface, type=ELEMENT, name=s_Surf-6
_s_Surf-6_S2, S2
_s_Surf-6_S3, S3
*End Assembly
*Amplitude, name=Amplitude
             0.,              0.,              1.,              1.
** 
** MATERIALS
** 
*Material, name=Steel
*Conductivity
 41.5,
*Density
 7.861e-09,
*Depvar
      2,
*Elastic
207000., 0.285
*Expansion
 1.28e-05,
*Inelastic Heat Fraction
         0.9,
*Plastic, hardening=USER, properties=1
1.,
*Specific Heat
 4.6e+08,
** 
** INTERACTION PROPERTIES
** 
*Surface Interaction, name=Friction
*Friction
 0.15,
** 
** PREDEFINED FIELDS
** 
** Name: InitTemp   Type: Temperature
*Initial Conditions, type=TEMPERATURE
Set-4, 1150.
** ----------------------------------------------------------------
** 
** STEP: Step-1
** 
*Step, name=Step-1, nlgeom=YES
*Dynamic, Explicit, adiabatic
, 1.
*Bulk Viscosity
0.06, 1.2
** Mass Scaling: Semi-Automatic
**               Whole Model
*Fixed Mass Scaling, factor=1000.
** 
** BOUNDARY CONDITIONS
** 
** Name: Axis Type: Displacement/Rotation
*Boundary
Set-1, 1, 1
Set-1, 6, 6
** Name: Bottom Type: Displacement/Rotation
*Boundary
Set-5, 2, 2
Set-5, 6, 6
** Name: Top Type: Displacement/Rotation
*Boundary, amplitude=Amplitude
Set-3, 1, 1
Set-3, 2, 2, -3
Set-3, 6, 6
** 
** INTERACTIONS
** 
** Interaction: Top
*Contact Pair, interaction=Friction, mechanical constraint=KINEMATIC, cpset=Top
Top-1.m_Surf-1, s_Surf-6
** 
** OUTPUT REQUESTS
** 
*Restart, write, number interval=1, time marks=NO
** 
** FIELD OUTPUT: F-Output-1
** 
*Output, field
*Node Output
A, CF, RF, U, V
*Element Output, directions=YES
LE, PE, PEEQ, PEMAG, S, SDV, TEMP
*Contact Output
CDISP, CSTRESS
** 
** HISTORY OUTPUT: H-Output-1
** 
*Output, history, time interval=0.004
*Element Output, elset=Set-5
MISES, PEEQ, SDV, TEMP
*Energy Output, elset=Set-5
ALLAE, ALLCD, ALLDMD, ALLFD, ALLIE, ALLKE, ALLPD, ALLSE, ALLVD, ALLWK, ETOTAL
*Incrementation Output
DT, 
*End Step
